
*** ChampSim Multicore Out-of-Order Simulator ***

Warmup Instructions: 10000000
Simulation Instructions: 10000000
Number of CPUs: 1
LLC sets: 2048
LLC ways: 16
Off-chip DRAM Size: 4096 MB Channels: 1 Width: 64-bit Data Rate: 6400 MT/s
CPU 0 runs ../traces//BellmanFord_94B.trace.gz
.gz
CPU 0 Bimodal branch predictor
BTB has LRU replacement policy
ITLB has LRU replacement policy
DTLB has LRU replacement policy
STLB has LRU replacement policy
L1I has LRU replacement policy
L1D has LRU replacement policy
L2C has LRU replacement policy
LLC has LRU replacement policy
Heartbeat CPU 0 instructions: 1000002 cycles: 318821 heartbeat IPC: 3.13656 cumulative IPC: 3.13656 (Simulation time: 0 hr 0 min 2 sec) 
Heartbeat CPU 0 instructions: 2000002 cycles: 638237 heartbeat IPC: 3.13071 cumulative IPC: 3.13364 (Simulation time: 0 hr 0 min 5 sec) 
Heartbeat CPU 0 instructions: 3000001 cycles: 958284 heartbeat IPC: 3.12454 cumulative IPC: 3.1306 (Simulation time: 0 hr 0 min 8 sec) 
Heartbeat CPU 0 instructions: 4000000 cycles: 1277231 heartbeat IPC: 3.13531 cumulative IPC: 3.13177 (Simulation time: 0 hr 0 min 11 sec) 
Heartbeat CPU 0 instructions: 5000003 cycles: 1594980 heartbeat IPC: 3.14715 cumulative IPC: 3.13484 (Simulation time: 0 hr 0 min 14 sec) 
Heartbeat CPU 0 instructions: 6000000 cycles: 1913817 heartbeat IPC: 3.13639 cumulative IPC: 3.1351 (Simulation time: 0 hr 0 min 17 sec) 
Heartbeat CPU 0 instructions: 7000003 cycles: 2230050 heartbeat IPC: 3.16223 cumulative IPC: 3.13894 (Simulation time: 0 hr 0 min 20 sec) 
Heartbeat CPU 0 instructions: 8000001 cycles: 2548422 heartbeat IPC: 3.14097 cumulative IPC: 3.1392 (Simulation time: 0 hr 0 min 22 sec) 
Heartbeat CPU 0 instructions: 9000002 cycles: 2868641 heartbeat IPC: 3.12287 cumulative IPC: 3.13737 (Simulation time: 0 hr 0 min 25 sec) 
Heartbeat CPU 0 instructions: 10000002 cycles: 3187780 heartbeat IPC: 3.13343 cumulative IPC: 3.13698 (Simulation time: 0 hr 0 min 28 sec) 

Warmup complete CPU 0 instructions: 10000002 cycles: 3187780 (Simulation time: 0 hr 0 min 28 sec) 

Heartbeat CPU 0 instructions: 11000000 cycles: 10920947 heartbeat IPC: 0.129313 cumulative IPC: 0.129313 (Simulation time: 0 hr 0 min 35 sec) 
Heartbeat CPU 0 instructions: 12000001 cycles: 18303383 heartbeat IPC: 0.135457 cumulative IPC: 0.132314 (Simulation time: 0 hr 0 min 43 sec) 
Heartbeat CPU 0 instructions: 13000001 cycles: 26260713 heartbeat IPC: 0.12567 cumulative IPC: 0.130022 (Simulation time: 0 hr 0 min 53 sec) 
Heartbeat CPU 0 instructions: 14000003 cycles: 34373895 heartbeat IPC: 0.123256 cumulative IPC: 0.128262 (Simulation time: 0 hr 1 min 3 sec) 
Heartbeat CPU 0 instructions: 15000001 cycles: 42040183 heartbeat IPC: 0.130441 cumulative IPC: 0.128692 (Simulation time: 0 hr 1 min 12 sec) 
Heartbeat CPU 0 instructions: 16000000 cycles: 50167848 heartbeat IPC: 0.123036 cumulative IPC: 0.127714 (Simulation time: 0 hr 1 min 21 sec) 
Heartbeat CPU 0 instructions: 17000000 cycles: 58465400 heartbeat IPC: 0.120517 cumulative IPC: 0.126633 (Simulation time: 0 hr 1 min 30 sec) 
Heartbeat CPU 0 instructions: 18000001 cycles: 67431927 heartbeat IPC: 0.111526 cumulative IPC: 0.124525 (Simulation time: 0 hr 1 min 41 sec) 
Heartbeat CPU 0 instructions: 19000003 cycles: 74107684 heartbeat IPC: 0.149796 cumulative IPC: 0.126904 (Simulation time: 0 hr 1 min 52 sec) 
Heartbeat CPU 0 instructions: 20000000 cycles: 80603487 heartbeat IPC: 0.153945 cumulative IPC: 0.129173 (Simulation time: 0 hr 2 min 5 sec) 
Finished CPU 0 instructions: 10000002 cycles: 77415708 cumulative IPC: 0.129173 (Simulation time: 0 hr 2 min 5 sec) 

ChampSim completed all CPUs

Region of Interest Statistics

CPU 0 cumulative IPC: 0.129173 instructions: 10000002 cycles: 77415708

Total ROB STALLS:                    2546087
STLB MISS ROB STALLS:                      3
L1D  LOAD MISS ROB STALLS:            432855  Translation MISS ROB STALLS:             3
L2C  LOAD MISS ROB STALLS:            406764  Translation MISS ROB STALLS:             3
LLC  LOAD MISS ROB STALLS:            339380  Translation MISS ROB STALLS:             3

ITLB TOTAL     ACCESS:           1419127  HIT:    1419127  MISS:          0  HIT %:        100  MISS %:          0   MPKI: 0
ITLB LOAD TRANSLATION ACCESS:    1419127  HIT:    1419127  MISS:          0  HIT %:        100  MISS %:          0   MPKI: 0
ITLB AVERAGE MISS LATENCY:          -nan cycles
ITLB RQ ACCESS:     1608709	FORWARD:           0	MERGED:       189582	TO_CACHE:    1419127

DTLB TOTAL     ACCESS:           2551511  HIT:    2532762  MISS:      18749  HIT %:    99.2652  MISS %:   0.734819   MPKI: 1.8749
DTLB LOAD TRANSLATION ACCESS:    2551511  HIT:    2532762  MISS:      18749  HIT %:    99.2652  MISS %:   0.734819   MPKI: 1.8749
DTLB AVERAGE MISS LATENCY:       9.09318 cycles
DTLB RQ ACCESS:     2690549	FORWARD:           0	MERGED:       139025	TO_CACHE:    2551524

STLB TOTAL     ACCESS:             18749  HIT:      18744  MISS:          5  HIT %:    99.9733  MISS %:  0.0266681   MPKI: 0.0005
STLB LOAD TRANSLATION ACCESS:      18749  HIT:      18744  MISS:          5  HIT %:    99.9733  MISS %:  0.0266681   MPKI: 0.0005
STLB AVERAGE MISS LATENCY:         348.2 cycles
STLB RQ ACCESS:       18749	FORWARD:           0	MERGED:            0	TO_CACHE:      18749

PSCL4 TOTAL     ACCESS:                 5  HIT:          5  MISS:          0  HIT %:        100  MISS %:          0   MPKI: 0
PSCL4 LOAD TRANSLATION ACCESS:          5  HIT:          5  MISS:          0  HIT %:        100  MISS %:          0   MPKI: 0

PSCL3 TOTAL     ACCESS:                 5  HIT:          5  MISS:          0  HIT %:        100  MISS %:          0   MPKI: 0
PSCL3 LOAD TRANSLATION ACCESS:          5  HIT:          5  MISS:          0  HIT %:        100  MISS %:          0   MPKI: 0

PSCL2 TOTAL     ACCESS:                 5  HIT:          5  MISS:          0  HIT %:        100  MISS %:          0   MPKI: 0
PSCL2 LOAD TRANSLATION ACCESS:          5  HIT:          5  MISS:          0  HIT %:        100  MISS %:          0   MPKI: 0

L1D TOTAL     ACCESS:           2515559  HIT:    1729936  MISS:     785623  HIT %:    68.7694  MISS %:    31.2306   MPKI: 78.5623  USED:     193145  UNUSED:     592478
L1D LOAD      ACCESS:           2317136  HIT:    1592518  MISS:     724618  HIT %:    68.7279  MISS %:    31.2721   MPKI: 72.4618  USED:     193145  UNUSED:     531439
L1D RFO       ACCESS:            198418  HIT:     137418  MISS:      61000  HIT %:    69.2568  MISS %:    30.7432   MPKI: 6.1
L1D LOAD TRANSLATION ACCESS:          5  HIT:          0  MISS:          5  HIT %:          0  MISS %:        100   MPKI: 0.0005  USED:          0  UNUSED:          5
L1D PTL1 TRANSLATION ACCESS:          5  HIT:          0  MISS:          5  HIT %:          0  MISS %:        100   MPKI: 0.0005
L1D PTL2 TRANSLATION ACCESS:          0  HIT:          0  MISS:          0  HIT %:       -nan  MISS %:       -nan   MPKI: 0
L1D PTL3 TRANSLATION ACCESS:          0  HIT:          0  MISS:          0  HIT %:       -nan  MISS %:       -nan   MPKI: 0
L1D PTL4 TRANSLATION ACCESS:          0  HIT:          0  MISS:          0  HIT %:       -nan  MISS %:       -nan   MPKI: 0
L1D PTL5 TRANSLATION ACCESS:          0  HIT:          0  MISS:          0  HIT %:       -nan  MISS %:       -nan   MPKI: 0
L1D TOTAL EVICTIONS:             785623  TRANSLATION EVICTIONS:          5  TRANSLATION EVICTING TRANSALTION:          0  TRANSLATION EVICTING LOAD:          5  LOAD EVICTING TRANSALTION:          4  LOAD EVICTING LOAD:      672987
L1D AVERAGE MISS LATENCY:       236.526 cycles  AVERAGE LOAD MISS LATENCY:       239.754 cycles  AVERAGE LOAD TRANSLATION MISS LATENCY:         242.2 cycles
L1D RQ ACCESS:     3830065	FORWARD:           0	MERGED:      1337933	TO_CACHE:    2492132
L1D WQ ACCESS:      198422	FORWARD:           0	MERGED:            0	TO_CACHE:     198422

L1I TOTAL     ACCESS:           1608709  HIT:    1608709  MISS:          0  HIT %:        100  MISS %:          0   MPKI: 0
L1I LOAD      ACCESS:           1608709  HIT:    1608709  MISS:          0  HIT %:        100  MISS %:          0   MPKI: 0
L1I AVERAGE MISS LATENCY:          -nan cycles
L1I RQ ACCESS:     2556448	FORWARD:           0	MERGED:       947739	TO_CACHE:    1608709

L2C TOTAL     ACCESS:            982205  HIT:     239129  MISS:     743076  HIT %:    24.3461  MISS %:    75.6539   MPKI: 74.3076  USED:      34664  UNUSED:     708412
L2C LOAD      ACCESS:            724618  HIT:      40973  MISS:     683645  HIT %:    5.65443  MISS %:    94.3456   MPKI: 68.3645  USED:      31645  UNUSED:     652037
L2C RFO       ACCESS:             60999  HIT:       3080  MISS:      57919  HIT %:    5.04926  MISS %:    94.9507   MPKI: 5.7919
L2C WRITEBACK ACCESS:            196583  HIT:     195076  MISS:       1507  HIT %:    99.2334  MISS %:   0.766597   MPKI: 0.1507
L2C LOAD TRANSLATION ACCESS:          5  HIT:          0  MISS:          5  HIT %:          0  MISS %:        100   MPKI: 0.0005  USED:          0  UNUSED:          5
L2C PTL1 TRANSLATION ACCESS:          5  HIT:          0  MISS:          5  HIT %:          0  MISS %:        100   MPKI: 0.0005
L2C PTL2 TRANSLATION ACCESS:          0  HIT:          0  MISS:          0  HIT %:       -nan  MISS %:       -nan   MPKI: 0
L2C PTL3 TRANSLATION ACCESS:          0  HIT:          0  MISS:          0  HIT %:       -nan  MISS %:       -nan   MPKI: 0
L2C PTL4 TRANSLATION ACCESS:          0  HIT:          0  MISS:          0  HIT %:       -nan  MISS %:       -nan   MPKI: 0
L2C PTL5 TRANSLATION ACCESS:          0  HIT:          0  MISS:          0  HIT %:       -nan  MISS %:       -nan   MPKI: 0
L2C TOTAL EVICTIONS:             743076  TRANSLATION EVICTIONS:          5  TRANSLATION EVICTING TRANSALTION:          0  TRANSLATION EVICTING LOAD:          5  LOAD EVICTING TRANSALTION:          5  LOAD EVICTING LOAD:      634367
L2C AVERAGE MISS LATENCY:       234.039 cycles  AVERAGE LOAD MISS LATENCY:       238.038 cycles  AVERAGE LOAD TRANSLATION MISS LATENCY:         227.2 cycles
L2C RQ ACCESS:      785624	FORWARD:           0	MERGED:            0	TO_CACHE:     785623
L2C WQ ACCESS:      196583	FORWARD:           1	MERGED:            0	TO_CACHE:     196583

LLC TOTAL     ACCESS:            933471  HIT:     277845  MISS:     655626  HIT %:    29.7647  MISS %:    70.2353   MPKI: 65.5626  USED:      58939  UNUSED:     596687
LLC LOAD      ACCESS:            683643  HIT:      81685  MISS:     601958  HIT %:    11.9485  MISS %:    88.0515   MPKI: 60.1958  USED:      54510  UNUSED:     547173
LLC RFO       ACCESS:             57919  HIT:       4752  MISS:      53167  HIT %:    8.20456  MISS %:    91.7954   MPKI: 5.3167
LLC WRITEBACK ACCESS:            191904  HIT:     191408  MISS:        496  HIT %:    99.7415  MISS %:   0.258463   MPKI: 0.0496
LLC LOAD TRANSLATION ACCESS:          5  HIT:          0  MISS:          5  HIT %:          0  MISS %:        100   MPKI: 0.0005  USED:          0  UNUSED:          5
LLC PTL1 TRANSLATION ACCESS:          5  HIT:          0  MISS:          5  HIT %:          0  MISS %:        100   MPKI: 0.0005
LLC PTL2 TRANSLATION ACCESS:          0  HIT:          0  MISS:          0  HIT %:       -nan  MISS %:       -nan   MPKI: 0
LLC PTL3 TRANSLATION ACCESS:          0  HIT:          0  MISS:          0  HIT %:       -nan  MISS %:       -nan   MPKI: 0
LLC PTL4 TRANSLATION ACCESS:          0  HIT:          0  MISS:          0  HIT %:       -nan  MISS %:       -nan   MPKI: 0
LLC PTL5 TRANSLATION ACCESS:          0  HIT:          0  MISS:          0  HIT %:       -nan  MISS %:       -nan   MPKI: 0
LLC TOTAL EVICTIONS:             655626  TRANSLATION EVICTIONS:          5  TRANSLATION EVICTING TRANSALTION:          0  TRANSLATION EVICTING LOAD:          4  LOAD EVICTING TRANSALTION:          5  LOAD EVICTING LOAD:      553547
LLC AVERAGE MISS LATENCY:       231.323 cycles  AVERAGE LOAD MISS LATENCY:       236.269 cycles  AVERAGE LOAD TRANSLATION MISS LATENCY:         197.2 cycles
LLC RQ ACCESS:      741570	FORWARD:           0	MERGED:            0	TO_CACHE:     741568
LLC WQ ACCESS:      191905	FORWARD:           2	MERGED:            0	TO_CACHE:     191905


RAW hits: 0
Loads Generated: 3830058
Loads sent to L1D: 3830060
Stores Generated: 198422
Stores sent to L1D: 198422
Major fault: 0 Minor fault: 97
Allocated PAGES: 97

DRAM Statistics
 CHANNEL 0
 RQ ROW_BUFFER_HIT:       5410  ROW_BUFFER_MISS:     649523
 DBUS_CONGESTED:          6
 WQ ROW_BUFFER_HIT:     129471  ROW_BUFFER_MISS:      53139  FULL:          0

 AVG_CONGESTED_CYCLE: 4

CPU 0 Branch Prediction Accuracy: 87.5533% MPKI: 21.3623 Average ROB Occupancy at Mispredict: 28.2206
Branch types
NOT_BRANCH: 8283376 82.8337%
BRANCH_DIRECT_JUMP: 76825 0.76825%
BRANCH_INDIRECT: 0 0%
BRANCH_CONDITIONAL: 1639480 16.3948%
BRANCH_DIRECT_CALL: 0 0%
BRANCH_INDIRECT_CALL: 0 0%
BRANCH_RETURN: 0 0%
BRANCH_OTHER: 0 0%

DRAM PAGES: 1048576
Allocated PAGES: 97
