
*** ChampSim Multicore Out-of-Order Simulator ***

Warmup Instructions: 10000000
Simulation Instructions: 10000000
Number of CPUs: 1
LLC sets: 2048
LLC ways: 16
Off-chip DRAM Size: 4096 MB Channels: 1 Width: 64-bit Data Rate: 6400 MT/s
CPU 0 runs ../traces//BellmanFord_94B.trace.gz
.gz
CPU 0 Bimodal branch predictor
BTB has LRU replacement policy
ITLB has LRU replacement policy
DTLB has LRU replacement policy
STLB has LRU replacement policy
L1I has LRU replacement policy
L1D has LRU replacement policy
L2C has LRU replacement policy
LLC has LRU replacement policy
Heartbeat CPU 0 instructions: 1000002 cycles: 324019 heartbeat IPC: 3.08625 cumulative IPC: 3.08625 (Simulation time: 0 hr 0 min 3 sec) 
Heartbeat CPU 0 instructions: 2000002 cycles: 648474 heartbeat IPC: 3.08209 cumulative IPC: 3.08417 (Simulation time: 0 hr 0 min 7 sec) 
Heartbeat CPU 0 instructions: 3000001 cycles: 973382 heartbeat IPC: 3.07779 cumulative IPC: 3.08204 (Simulation time: 0 hr 0 min 10 sec) 
Heartbeat CPU 0 instructions: 4000001 cycles: 1296971 heartbeat IPC: 3.09034 cumulative IPC: 3.08411 (Simulation time: 0 hr 0 min 13 sec) 
Heartbeat CPU 0 instructions: 5000003 cycles: 1619857 heartbeat IPC: 3.09707 cumulative IPC: 3.08669 (Simulation time: 0 hr 0 min 17 sec) 
Heartbeat CPU 0 instructions: 6000000 cycles: 1943708 heartbeat IPC: 3.08783 cumulative IPC: 3.08688 (Simulation time: 0 hr 0 min 20 sec) 
Heartbeat CPU 0 instructions: 7000003 cycles: 2264993 heartbeat IPC: 3.11251 cumulative IPC: 3.09052 (Simulation time: 0 hr 0 min 24 sec) 
Heartbeat CPU 0 instructions: 8000001 cycles: 2588022 heartbeat IPC: 3.09569 cumulative IPC: 3.09116 (Simulation time: 0 hr 0 min 27 sec) 
Heartbeat CPU 0 instructions: 9000002 cycles: 2913525 heartbeat IPC: 3.07217 cumulative IPC: 3.08904 (Simulation time: 0 hr 0 min 30 sec) 
Heartbeat CPU 0 instructions: 10000002 cycles: 3237781 heartbeat IPC: 3.08398 cumulative IPC: 3.08854 (Simulation time: 0 hr 0 min 34 sec) 

Warmup complete CPU 0 instructions: 10000002 cycles: 3237781 (Simulation time: 0 hr 0 min 34 sec) 

Heartbeat CPU 0 instructions: 11000000 cycles: 11285447 heartbeat IPC: 0.124259 cumulative IPC: 0.124259 (Simulation time: 0 hr 0 min 42 sec) 
Heartbeat CPU 0 instructions: 12000001 cycles: 18929733 heartbeat IPC: 0.130817 cumulative IPC: 0.127454 (Simulation time: 0 hr 0 min 50 sec) 
Heartbeat CPU 0 instructions: 13000001 cycles: 27199720 heartbeat IPC: 0.120919 cumulative IPC: 0.125199 (Simulation time: 0 hr 0 min 58 sec) 
Heartbeat CPU 0 instructions: 14000003 cycles: 35656283 heartbeat IPC: 0.118252 cumulative IPC: 0.123386 (Simulation time: 0 hr 1 min 5 sec) 
Heartbeat CPU 0 instructions: 15000001 cycles: 43611304 heartbeat IPC: 0.125707 cumulative IPC: 0.123844 (Simulation time: 0 hr 1 min 15 sec) 
Heartbeat CPU 0 instructions: 16000000 cycles: 52085515 heartbeat IPC: 0.118005 cumulative IPC: 0.122831 (Simulation time: 0 hr 1 min 28 sec) 
Heartbeat CPU 0 instructions: 17000000 cycles: 60736149 heartbeat IPC: 0.115598 cumulative IPC: 0.121743 (Simulation time: 0 hr 1 min 38 sec) 
Heartbeat CPU 0 instructions: 18000001 cycles: 70124393 heartbeat IPC: 0.106516 cumulative IPC: 0.119605 (Simulation time: 0 hr 1 min 47 sec) 
Heartbeat CPU 0 instructions: 19000003 cycles: 77010080 heartbeat IPC: 0.145229 cumulative IPC: 0.121997 (Simulation time: 0 hr 1 min 55 sec) 
Heartbeat CPU 0 instructions: 20000000 cycles: 83716625 heartbeat IPC: 0.149108 cumulative IPC: 0.124256 (Simulation time: 0 hr 2 min 6 sec) 
Finished CPU 0 instructions: 10000002 cycles: 80478845 cumulative IPC: 0.124256 (Simulation time: 0 hr 2 min 6 sec) 

ChampSim completed all CPUs

Region of Interest Statistics

CPU 0 cumulative IPC: 0.124256 instructions: 10000002 cycles: 80478845

Total ROB STALLS:                    2468239
STLB MISS ROB STALLS:                      3
L1D  LOAD MISS ROB STALLS:            801356  Translation MISS ROB STALLS:             3
L2C  LOAD MISS ROB STALLS:            386931  Translation MISS ROB STALLS:             3
LLC  LOAD MISS ROB STALLS:            345415  Translation MISS ROB STALLS:             3

ITLB TOTAL     ACCESS:           1419916  HIT:    1419916  MISS:          0  HIT %:        100  MISS %:          0   MPKI: 0
ITLB LOAD TRANSLATION ACCESS:    1419916  HIT:    1419916  MISS:          0  HIT %:        100  MISS %:          0   MPKI: 0
ITLB AVERAGE MISS LATENCY:          -nan cycles
ITLB RQ ACCESS:     1609498	FORWARD:           0	MERGED:       189582	TO_CACHE:    1419916

DTLB TOTAL     ACCESS:           2490494  HIT:    2471789  MISS:      18705  HIT %:    99.2489  MISS %:   0.751056   MPKI: 1.8705
DTLB LOAD TRANSLATION ACCESS:    2490494  HIT:    2471789  MISS:      18705  HIT %:    99.2489  MISS %:   0.751056   MPKI: 1.8705
DTLB AVERAGE MISS LATENCY:       9.09372 cycles
DTLB RQ ACCESS:     2683919	FORWARD:           0	MERGED:       193414	TO_CACHE:    2490505

STLB TOTAL     ACCESS:             18705  HIT:      18700  MISS:          5  HIT %:    99.9733  MISS %:  0.0267308   MPKI: 0.0005
STLB LOAD TRANSLATION ACCESS:      18705  HIT:      18700  MISS:          5  HIT %:    99.9733  MISS %:  0.0267308   MPKI: 0.0005
STLB AVERAGE MISS LATENCY:         348.2 cycles
STLB RQ ACCESS:       18705	FORWARD:           0	MERGED:            0	TO_CACHE:      18705

PSCL4 TOTAL     ACCESS:                 5  HIT:          5  MISS:          0  HIT %:        100  MISS %:          0   MPKI: 0
PSCL4 LOAD TRANSLATION ACCESS:          5  HIT:          5  MISS:          0  HIT %:        100  MISS %:          0   MPKI: 0

PSCL3 TOTAL     ACCESS:                 5  HIT:          5  MISS:          0  HIT %:        100  MISS %:          0   MPKI: 0
PSCL3 LOAD TRANSLATION ACCESS:          5  HIT:          5  MISS:          0  HIT %:        100  MISS %:          0   MPKI: 0

PSCL2 TOTAL     ACCESS:                 5  HIT:          5  MISS:          0  HIT %:        100  MISS %:          0   MPKI: 0
PSCL2 LOAD TRANSLATION ACCESS:          5  HIT:          5  MISS:          0  HIT %:        100  MISS %:          0   MPKI: 0

L1D TOTAL     ACCESS:           2398007  HIT:     593478  MISS:    1804529  HIT %:    24.7488  MISS %:    75.2512   MPKI: 180.453  USED:      35161  UNUSED:    1769368
L1D LOAD      ACCESS:           2199584  HIT:     457027  MISS:    1742557  HIT %:    20.7779  MISS %:    79.2221   MPKI: 174.256  USED:      35161  UNUSED:    1647120
L1D RFO       ACCESS:            198418  HIT:     136451  MISS:      61967  HIT %:    68.7695  MISS %:    31.2305   MPKI: 6.1967
L1D LOAD TRANSLATION ACCESS:          5  HIT:          0  MISS:          5  HIT %:          0  MISS %:        100   MPKI: 0.0005  USED:          0  UNUSED:         23
L1D PTL1 TRANSLATION ACCESS:          5  HIT:          0  MISS:          5  HIT %:          0  MISS %:        100   MPKI: 0.0005
L1D PTL2 TRANSLATION ACCESS:          0  HIT:          0  MISS:          0  HIT %:       -nan  MISS %:       -nan   MPKI: 0
L1D PTL3 TRANSLATION ACCESS:          0  HIT:          0  MISS:          0  HIT %:       -nan  MISS %:       -nan   MPKI: 0
L1D PTL4 TRANSLATION ACCESS:          0  HIT:          0  MISS:          0  HIT %:       -nan  MISS %:       -nan   MPKI: 0
L1D PTL5 TRANSLATION ACCESS:          0  HIT:          0  MISS:          0  HIT %:       -nan  MISS %:       -nan   MPKI: 0
L1D TOTAL EVICTIONS:            1804529  TRANSLATION EVICTIONS:         23  TRANSLATION EVICTING TRANSALTION:          0  TRANSLATION EVICTING LOAD:          3  LOAD EVICTING TRANSALTION:         22  LOAD EVICTING LOAD:     1628971
L1D AVERAGE MISS LATENCY:       111.176 cycles  AVERAGE LOAD MISS LATENCY:       108.203 cycles  AVERAGE LOAD TRANSLATION MISS LATENCY:         242.2 cycles
L1D RQ ACCESS:     3830063	FORWARD:           0	MERGED:      1344560	TO_CACHE:    2485502
L1D WQ ACCESS:      198422	FORWARD:           1	MERGED:            0	TO_CACHE:     198422

L1I TOTAL     ACCESS:           1609498  HIT:    1609498  MISS:          0  HIT %:        100  MISS %:          0   MPKI: 0
L1I LOAD      ACCESS:           1609498  HIT:    1609498  MISS:          0  HIT %:        100  MISS %:          0   MPKI: 0
L1I AVERAGE MISS LATENCY:          -nan cycles
L1I RQ ACCESS:     2557388	FORWARD:           0	MERGED:       947890	TO_CACHE:    1609498

L2C TOTAL     ACCESS:           2127516  HIT:    1385643  MISS:     741873  HIT %:    65.1296  MISS %:    34.8704   MPKI: 74.1873  USED:     192267  UNUSED:     549606
L2C LOAD      ACCESS:           1742550  HIT:    1059097  MISS:     683453  HIT %:    60.7786  MISS %:    39.2214   MPKI: 68.3453  USED:     189211  UNUSED:     494279
L2C RFO       ACCESS:             61967  HIT:       4053  MISS:      57914  HIT %:    6.54058  MISS %:    93.4594   MPKI: 5.7914
L2C WRITEBACK ACCESS:            322994  HIT:     322493  MISS:        501  HIT %:    99.8449  MISS %:   0.155111   MPKI: 0.0501
L2C LOAD TRANSLATION ACCESS:          5  HIT:          0  MISS:          5  HIT %:          0  MISS %:        100   MPKI: 0.0005  USED:          0  UNUSED:          5
L2C PTL1 TRANSLATION ACCESS:          5  HIT:          0  MISS:          5  HIT %:          0  MISS %:        100   MPKI: 0.0005
L2C PTL2 TRANSLATION ACCESS:          0  HIT:          0  MISS:          0  HIT %:       -nan  MISS %:       -nan   MPKI: 0
L2C PTL3 TRANSLATION ACCESS:          0  HIT:          0  MISS:          0  HIT %:       -nan  MISS %:       -nan   MPKI: 0
L2C PTL4 TRANSLATION ACCESS:          0  HIT:          0  MISS:          0  HIT %:       -nan  MISS %:       -nan   MPKI: 0
L2C PTL5 TRANSLATION ACCESS:          0  HIT:          0  MISS:          0  HIT %:       -nan  MISS %:       -nan   MPKI: 0
L2C TOTAL EVICTIONS:             741873  TRANSLATION EVICTIONS:          5  TRANSLATION EVICTING TRANSALTION:          0  TRANSLATION EVICTING LOAD:          5  LOAD EVICTING TRANSALTION:          5  LOAD EVICTING LOAD:      635089
L2C AVERAGE MISS LATENCY:       233.441 cycles  AVERAGE LOAD MISS LATENCY:       237.094 cycles  AVERAGE LOAD TRANSLATION MISS LATENCY:         227.2 cycles
L2C RQ ACCESS:     1804529	FORWARD:           0	MERGED:            0	TO_CACHE:    1804522
L2C WQ ACCESS:      325023	FORWARD:           7	MERGED:         2029	TO_CACHE:     322994

LLC TOTAL     ACCESS:            861825  HIT:     206222  MISS:     655603  HIT %:    23.9285  MISS %:    76.0715   MPKI: 65.5603  USED:      58941  UNUSED:     596662
LLC LOAD      ACCESS:            683453  HIT:      81295  MISS:     602158  HIT %:    11.8947  MISS %:    88.1053   MPKI: 60.2158  USED:      54692  UNUSED:     547192
LLC RFO       ACCESS:             57914  HIT:       4748  MISS:      53166  HIT %:    8.19836  MISS %:    91.8016   MPKI: 5.3166
LLC WRITEBACK ACCESS:            120453  HIT:     120179  MISS:        274  HIT %:    99.7725  MISS %:   0.227475   MPKI: 0.0274
LLC LOAD TRANSLATION ACCESS:          5  HIT:          0  MISS:          5  HIT %:          0  MISS %:        100   MPKI: 0.0005  USED:          0  UNUSED:          5
LLC PTL1 TRANSLATION ACCESS:          5  HIT:          0  MISS:          5  HIT %:          0  MISS %:        100   MPKI: 0.0005
LLC PTL2 TRANSLATION ACCESS:          0  HIT:          0  MISS:          0  HIT %:       -nan  MISS %:       -nan   MPKI: 0
LLC PTL3 TRANSLATION ACCESS:          0  HIT:          0  MISS:          0  HIT %:       -nan  MISS %:       -nan   MPKI: 0
LLC PTL4 TRANSLATION ACCESS:          0  HIT:          0  MISS:          0  HIT %:       -nan  MISS %:       -nan   MPKI: 0
LLC PTL5 TRANSLATION ACCESS:          0  HIT:          0  MISS:          0  HIT %:       -nan  MISS %:       -nan   MPKI: 0
LLC TOTAL EVICTIONS:             655603  TRANSLATION EVICTIONS:          5  TRANSLATION EVICTING TRANSALTION:          0  TRANSLATION EVICTING LOAD:          4  LOAD EVICTING TRANSALTION:          5  LOAD EVICTING LOAD:      553950
LLC AVERAGE MISS LATENCY:       230.233 cycles  AVERAGE LOAD MISS LATENCY:       235.052 cycles  AVERAGE LOAD TRANSLATION MISS LATENCY:         197.2 cycles
LLC RQ ACCESS:      741372	FORWARD:           0	MERGED:            0	TO_CACHE:     741372
LLC WQ ACCESS:      120453	FORWARD:           0	MERGED:            0	TO_CACHE:     120453


RAW hits: 0
Loads Generated: 3830057
Loads sent to L1D: 3830058
Stores Generated: 198421
Stores sent to L1D: 198422
Major fault: 0 Minor fault: 97
Allocated PAGES: 97

DRAM Statistics
 CHANNEL 0
 RQ ROW_BUFFER_HIT:       6547  ROW_BUFFER_MISS:     648719
 DBUS_CONGESTED:         12
 WQ ROW_BUFFER_HIT:      74980  ROW_BUFFER_MISS:      40988  FULL:          0

 AVG_CONGESTED_CYCLE: 5

CPU 0 Branch Prediction Accuracy: 87.5533% MPKI: 21.3623 Average ROB Occupancy at Mispredict: 29.0868
Branch types
NOT_BRANCH: 8283376 82.8337%
BRANCH_DIRECT_JUMP: 76825 0.76825%
BRANCH_INDIRECT: 0 0%
BRANCH_CONDITIONAL: 1639480 16.3948%
BRANCH_DIRECT_CALL: 0 0%
BRANCH_INDIRECT_CALL: 0 0%
BRANCH_RETURN: 0 0%
BRANCH_OTHER: 0 0%

DRAM PAGES: 1048576
Allocated PAGES: 97
