
*** ChampSim Multicore Out-of-Order Simulator ***

Warmup Instructions: 10000000
Simulation Instructions: 10000000
Number of CPUs: 1
LLC sets: 2048
LLC ways: 16
Off-chip DRAM Size: 4096 MB Channels: 1 Width: 64-bit Data Rate: 6400 MT/s
CPU 0 runs ../traces//BellmanFord_94B.trace.gz
.gz
CPU 0 Bimodal branch predictor
BTB has LRU replacement policy
ITLB has LRU replacement policy
DTLB has LRU replacement policy
STLB has LRU replacement policy
L1I has LRU replacement policy
L1D has LRU replacement policy
L2C has LRU replacement policy
LLC has LRU replacement policy
Heartbeat CPU 0 instructions: 1000001 cycles: 328185 heartbeat IPC: 3.04707 cumulative IPC: 3.04707 (Simulation time: 0 hr 0 min 5 sec) 
Heartbeat CPU 0 instructions: 2000000 cycles: 656962 heartbeat IPC: 3.04157 cumulative IPC: 3.04432 (Simulation time: 0 hr 0 min 9 sec) 
Heartbeat CPU 0 instructions: 3000002 cycles: 985632 heartbeat IPC: 3.04257 cumulative IPC: 3.04373 (Simulation time: 0 hr 0 min 13 sec) 
Heartbeat CPU 0 instructions: 4000001 cycles: 1313249 heartbeat IPC: 3.05234 cumulative IPC: 3.04588 (Simulation time: 0 hr 0 min 17 sec) 
Heartbeat CPU 0 instructions: 5000001 cycles: 1640310 heartbeat IPC: 3.05753 cumulative IPC: 3.0482 (Simulation time: 0 hr 0 min 22 sec) 
Heartbeat CPU 0 instructions: 6000001 cycles: 1968023 heartbeat IPC: 3.05145 cumulative IPC: 3.04875 (Simulation time: 0 hr 0 min 27 sec) 
Heartbeat CPU 0 instructions: 7000000 cycles: 2293646 heartbeat IPC: 3.07103 cumulative IPC: 3.05191 (Simulation time: 0 hr 0 min 33 sec) 
Heartbeat CPU 0 instructions: 8000001 cycles: 2620884 heartbeat IPC: 3.05588 cumulative IPC: 3.05241 (Simulation time: 0 hr 0 min 38 sec) 
Heartbeat CPU 0 instructions: 9000002 cycles: 2950238 heartbeat IPC: 3.03625 cumulative IPC: 3.0506 (Simulation time: 0 hr 0 min 43 sec) 
Heartbeat CPU 0 instructions: 10000002 cycles: 3278786 heartbeat IPC: 3.0437 cumulative IPC: 3.04991 (Simulation time: 0 hr 0 min 48 sec) 

Warmup complete CPU 0 instructions: 10000002 cycles: 3278786 (Simulation time: 0 hr 0 min 48 sec) 

Heartbeat CPU 0 instructions: 11000000 cycles: 11761615 heartbeat IPC: 0.117885 cumulative IPC: 0.117885 (Simulation time: 0 hr 1 min 3 sec) 
Heartbeat CPU 0 instructions: 12000001 cycles: 19689144 heartbeat IPC: 0.126143 cumulative IPC: 0.121874 (Simulation time: 0 hr 1 min 18 sec) 
Heartbeat CPU 0 instructions: 13000001 cycles: 28357938 heartbeat IPC: 0.115356 cumulative IPC: 0.119621 (Simulation time: 0 hr 1 min 34 sec) 
Heartbeat CPU 0 instructions: 14000003 cycles: 37192408 heartbeat IPC: 0.113193 cumulative IPC: 0.117947 (Simulation time: 0 hr 1 min 47 sec) 
Heartbeat CPU 0 instructions: 15000003 cycles: 45465244 heartbeat IPC: 0.120878 cumulative IPC: 0.118521 (Simulation time: 0 hr 2 min 1 sec) 
Heartbeat CPU 0 instructions: 16000000 cycles: 54330653 heartbeat IPC: 0.112798 cumulative IPC: 0.117527 (Simulation time: 0 hr 2 min 14 sec) 
Heartbeat CPU 0 instructions: 17000002 cycles: 63325785 heartbeat IPC: 0.111171 cumulative IPC: 0.116575 (Simulation time: 0 hr 2 min 26 sec) 
Heartbeat CPU 0 instructions: 18000001 cycles: 73088142 heartbeat IPC: 0.102434 cumulative IPC: 0.114598 (Simulation time: 0 hr 2 min 39 sec) 
Heartbeat CPU 0 instructions: 19000003 cycles: 80180721 heartbeat IPC: 0.140993 cumulative IPC: 0.117032 (Simulation time: 0 hr 2 min 51 sec) 
Heartbeat CPU 0 instructions: 20000002 cycles: 87085338 heartbeat IPC: 0.14483 cumulative IPC: 0.119322 (Simulation time: 0 hr 3 min 5 sec) 
Finished CPU 0 instructions: 10000000 cycles: 83806552 cumulative IPC: 0.119322 (Simulation time: 0 hr 3 min 5 sec) 

ChampSim completed all CPUs

Region of Interest Statistics

CPU 0 cumulative IPC: 0.119322 instructions: 10000000 cycles: 83806552

Total ROB STALLS:                    2474851
STLB MISS ROB STALLS:                  96562
L1D  LOAD MISS ROB STALLS:            414921  Translation MISS ROB STALLS:         79282
L2C  LOAD MISS ROB STALLS:            394172  Translation MISS ROB STALLS:         28064
LLC  LOAD MISS ROB STALLS:            362539  Translation MISS ROB STALLS:         11925

ITLB TOTAL     ACCESS:           1419244  HIT:    1419244  MISS:          0  HIT %:        100  MISS %:          0   MPKI: 0
ITLB LOAD TRANSLATION ACCESS:    1419244  HIT:    1419244  MISS:          0  HIT %:        100  MISS %:          0   MPKI: 0
ITLB AVERAGE MISS LATENCY:          -nan cycles
ITLB RQ ACCESS:     1608827	FORWARD:           0	MERGED:       189583	TO_CACHE:    1419244

DTLB TOTAL     ACCESS:           2636857  HIT:    1996610  MISS:     640247  HIT %:    75.7193  MISS %:    24.2807   MPKI: 64.0247
DTLB LOAD TRANSLATION ACCESS:    2636857  HIT:    1996610  MISS:     640247  HIT %:    75.7193  MISS %:    24.2807   MPKI: 64.0247
DTLB AVERAGE MISS LATENCY:       53.4781 cycles
DTLB RQ ACCESS:     2683268	FORWARD:           0	MERGED:        45333	TO_CACHE:    2637935

STLB TOTAL     ACCESS:            640247  HIT:     250318  MISS:     389929  HIT %:    39.0971  MISS %:    60.9029   MPKI: 38.9929
STLB LOAD TRANSLATION ACCESS:     640247  HIT:     250318  MISS:     389929  HIT %:    39.0971  MISS %:    60.9029   MPKI: 38.9929
STLB AVERAGE MISS LATENCY:       72.4325 cycles
STLB RQ ACCESS:      640247	FORWARD:           0	MERGED:            0	TO_CACHE:     640247

PSCL5 TOTAL     ACCESS:            389929  HIT:     389929  MISS:          0  HIT %:        100  MISS %:          0   MPKI: 0
PSCL5 LOAD TRANSLATION ACCESS:     389929  HIT:     389929  MISS:          0  HIT %:        100  MISS %:          0   MPKI: 0

PSCL4 TOTAL     ACCESS:            389929  HIT:     389929  MISS:          0  HIT %:        100  MISS %:          0   MPKI: 0
PSCL4 LOAD TRANSLATION ACCESS:     389929  HIT:     389929  MISS:          0  HIT %:        100  MISS %:          0   MPKI: 0

PSCL3 TOTAL     ACCESS:            389929  HIT:     389929  MISS:          0  HIT %:        100  MISS %:          0   MPKI: 0
PSCL3 LOAD TRANSLATION ACCESS:     389929  HIT:     389929  MISS:          0  HIT %:        100  MISS %:          0   MPKI: 0

PSCL2 TOTAL     ACCESS:            389929  HIT:     283714  MISS:     106215  HIT %:    72.7604  MISS %:    27.2396   MPKI: 10.6215
PSCL2 LOAD TRANSLATION ACCESS:     389929  HIT:     283714  MISS:     106215  HIT %:    72.7604  MISS %:    27.2396   MPKI: 10.6215

L1D TOTAL     ACCESS:           3011176  HIT:    1934874  MISS:    1076302  HIT %:    64.2564  MISS %:    35.7436   MPKI: 107.63  USED:     255860  UNUSED:     820442
L1D LOAD      ACCESS:           2316618  HIT:    1588102  MISS:     728516  HIT %:    68.5526  MISS %:    31.4474   MPKI: 72.8516  USED:     191738  UNUSED:     536715
L1D RFO       ACCESS:            198419  HIT:     137216  MISS:      61203  HIT %:    69.1547  MISS %:    30.8453   MPKI: 6.1203
L1D LOAD TRANSLATION ACCESS:     496139  HIT:     209556  MISS:     286583  HIT %:    42.2374  MISS %:    57.7626   MPKI: 28.6583  USED:      64122  UNUSED:     222505
L1D PTL1 TRANSLATION ACCESS:     389924  HIT:     107972  MISS:     281952  HIT %:    27.6905  MISS %:    72.3095   MPKI: 28.1952
L1D PTL2 TRANSLATION ACCESS:     106215  HIT:     101584  MISS:       4631  HIT %:      95.64  MISS %:    4.36002   MPKI: 0.4631
L1D PTL3 TRANSLATION ACCESS:          0  HIT:          0  MISS:          0  HIT %:       -nan  MISS %:       -nan   MPKI: 0
L1D PTL4 TRANSLATION ACCESS:          0  HIT:          0  MISS:          0  HIT %:       -nan  MISS %:       -nan   MPKI: 0
L1D PTL5 TRANSLATION ACCESS:          0  HIT:          0  MISS:          0  HIT %:       -nan  MISS %:       -nan   MPKI: 0
L1D TOTAL EVICTIONS:            1076302  TRANSLATION EVICTIONS:     286627  TRANSLATION EVICTING TRANSALTION:     111253  TRANSLATION EVICTING LOAD:     160662  LOAD EVICTING TRANSALTION:     160803  LOAD EVICTING LOAD:      529442
L1D AVERAGE MISS LATENCY:       166.415 cycles  AVERAGE LOAD MISS LATENCY:       214.823 cycles  AVERAGE LOAD TRANSLATION MISS LATENCY:       37.1665 cycles
L1D RQ ACCESS:     4326196	FORWARD:           0	MERGED:      1345211	TO_CACHE:    2980985
L1D WQ ACCESS:      198422	FORWARD:           0	MERGED:            0	TO_CACHE:     198422

L1I TOTAL     ACCESS:           1608827  HIT:    1608827  MISS:          0  HIT %:        100  MISS %:          0   MPKI: 0
L1I LOAD      ACCESS:           1608827  HIT:    1608827  MISS:          0  HIT %:        100  MISS %:          0   MPKI: 0
L1I AVERAGE MISS LATENCY:          -nan cycles
L1I RQ ACCESS:     2557471	FORWARD:           0	MERGED:       948644	TO_CACHE:    1608827

L2C TOTAL     ACCESS:           1273218  HIT:     494462  MISS:     778756  HIT %:    38.8356  MISS %:    61.1644   MPKI: 77.8756  USED:      81697  UNUSED:     697059
L2C LOAD      ACCESS:            728515  HIT:      75766  MISS:     652749  HIT %:    10.4001  MISS %:    89.5999   MPKI: 65.2749  USED:      49329  UNUSED:     603318
L2C RFO       ACCESS:             61203  HIT:       3113  MISS:      58090  HIT %:    5.08635  MISS %:    94.9136   MPKI: 5.809
L2C WRITEBACK ACCESS:            196917  HIT:     196909  MISS:          8  HIT %:    99.9959  MISS %: 0.00406263   MPKI: 0.0008
L2C LOAD TRANSLATION ACCESS:     286583  HIT:     218674  MISS:      67909  HIT %:    76.3039  MISS %:    23.6961   MPKI: 6.7909  USED:      29656  UNUSED:      38255
L2C PTL1 TRANSLATION ACCESS:     281952  HIT:     214363  MISS:      67589  HIT %:    76.0282  MISS %:    23.9718   MPKI: 6.7589
L2C PTL2 TRANSLATION ACCESS:       4631  HIT:       4311  MISS:        320  HIT %:      93.09  MISS %:    6.90995   MPKI: 0.032
L2C PTL3 TRANSLATION ACCESS:          0  HIT:          0  MISS:          0  HIT %:       -nan  MISS %:       -nan   MPKI: 0
L2C PTL4 TRANSLATION ACCESS:          0  HIT:          0  MISS:          0  HIT %:       -nan  MISS %:       -nan   MPKI: 0
L2C PTL5 TRANSLATION ACCESS:          0  HIT:          0  MISS:          0  HIT %:       -nan  MISS %:       -nan   MPKI: 0
L2C TOTAL EVICTIONS:             778756  TRANSLATION EVICTIONS:      67911  TRANSLATION EVICTING TRANSALTION:       5808  TRANSLATION EVICTING LOAD:      57040  LOAD EVICTING TRANSALTION:      57131  LOAD EVICTING LOAD:      546613
L2C AVERAGE MISS LATENCY:       209.059 cycles  AVERAGE LOAD MISS LATENCY:       222.778 cycles  AVERAGE LOAD TRANSLATION MISS LATENCY:       93.5197 cycles
L2C RQ ACCESS:     1076304	FORWARD:           0	MERGED:            0	TO_CACHE:    1076303
L2C WQ ACCESS:      196917	FORWARD:           1	MERGED:            0	TO_CACHE:     196917

LLC TOTAL     ACCESS:            970213  HIT:     319751  MISS:     650462  HIT %:    32.9568  MISS %:    67.0432   MPKI: 65.0462  USED:      69859  UNUSED:     580603
LLC LOAD      ACCESS:            652749  HIT:      78304  MISS:     574445  HIT %:     11.996  MISS %:     88.004   MPKI: 57.4445  USED:      53443  UNUSED:     520905
LLC RFO       ACCESS:             58090  HIT:       5037  MISS:      53053  HIT %:    8.67103  MISS %:     91.329   MPKI: 5.3053
LLC WRITEBACK ACCESS:            191465  HIT:     191424  MISS:         41  HIT %:    99.9786  MISS %:  0.0214138   MPKI: 0.0041
LLC LOAD TRANSLATION ACCESS:      67909  HIT:      44986  MISS:      22923  HIT %:    66.2445  MISS %:    33.7555   MPKI: 2.2923  USED:      12181  UNUSED:      10690
LLC PTL1 TRANSLATION ACCESS:      67589  HIT:      44752  MISS:      22837  HIT %:     66.212  MISS %:     33.788   MPKI: 2.2837
LLC PTL2 TRANSLATION ACCESS:        320  HIT:        234  MISS:         86  HIT %:     73.125  MISS %:     26.875   MPKI: 0.0086
LLC PTL3 TRANSLATION ACCESS:          0  HIT:          0  MISS:          0  HIT %:       -nan  MISS %:       -nan   MPKI: 0
LLC PTL4 TRANSLATION ACCESS:          0  HIT:          0  MISS:          0  HIT %:       -nan  MISS %:       -nan   MPKI: 0
LLC PTL5 TRANSLATION ACCESS:          0  HIT:          0  MISS:          0  HIT %:       -nan  MISS %:       -nan   MPKI: 0
LLC TOTAL EVICTIONS:             650462  TRANSLATION EVICTIONS:      22871  TRANSLATION EVICTING TRANSALTION:        816  TRANSLATION EVICTING LOAD:      20272  LOAD EVICTING TRANSALTION:      20206  LOAD EVICTING LOAD:      507451
LLC AVERAGE MISS LATENCY:       214.096 cycles  AVERAGE LOAD MISS LATENCY:       218.765 cycles  AVERAGE LOAD TRANSLATION MISS LATENCY:       188.174 cycles
LLC RQ ACCESS:      778750	FORWARD:           0	MERGED:            0	TO_CACHE:     778750
LLC WQ ACCESS:      191465	FORWARD:           0	MERGED:            0	TO_CACHE:     191465


RAW hits: 0
Loads Generated: 3830057
Loads sent to L1D: 3830057
Stores Generated: 198421
Stores sent to L1D: 198422
Major fault: 0 Minor fault: 36805
Allocated PAGES: 36805

DRAM Statistics
 CHANNEL 0
 RQ ROW_BUFFER_HIT:      15443  ROW_BUFFER_MISS:     634949
 DBUS_CONGESTED:         95
 WQ ROW_BUFFER_HIT:      97295  ROW_BUFFER_MISS:      85188  FULL:          0

 AVG_CONGESTED_CYCLE: 4

CPU 0 Branch Prediction Accuracy: 87.5533% MPKI: 21.3623 Average ROB Occupancy at Mispredict: 28.2645
Branch types
NOT_BRANCH: 8283376 82.8338%
BRANCH_DIRECT_JUMP: 76825 0.76825%
BRANCH_INDIRECT: 0 0%
BRANCH_CONDITIONAL: 1639480 16.3948%
BRANCH_DIRECT_CALL: 0 0%
BRANCH_INDIRECT_CALL: 0 0%
BRANCH_RETURN: 0 0%
BRANCH_OTHER: 0 0%

DRAM PAGES: 1048576
Allocated PAGES: 36805
