
*** ChampSim Multicore Out-of-Order Simulator ***

Warmup Instructions: 10000000
Simulation Instructions: 10000000
Number of CPUs: 1
LLC sets: 2048
LLC ways: 16
Off-chip DRAM Size: 4096 MB Channels: 1 Width: 64-bit Data Rate: 6400 MT/s
CPU 0 runs ../GraphTraces//BellmanFord_94B.trace.gz
.gz
CPU 0 Bimodal branch predictor
BTB has LRU replacement policy
ITLB has LRU replacement policy
DTLB has LRU replacement policy
STLB has LRU replacement policy
L1I has LRU replacement policy
L1D has LRU replacement policy
L2C has LRU replacement policy
LLC has LRU replacement policy
Heartbeat CPU 0 instructions: 1000002 cycles: 318851 heartbeat IPC: 3.13627 cumulative IPC: 3.13627 (Simulation time: 0 hr 0 min 3 sec) 
Heartbeat CPU 0 instructions: 2000002 cycles: 638277 heartbeat IPC: 3.13062 cumulative IPC: 3.13344 (Simulation time: 0 hr 0 min 5 sec) 
Heartbeat CPU 0 instructions: 3000001 cycles: 958352 heartbeat IPC: 3.12426 cumulative IPC: 3.13037 (Simulation time: 0 hr 0 min 8 sec) 
Heartbeat CPU 0 instructions: 4000000 cycles: 1277319 heartbeat IPC: 3.13512 cumulative IPC: 3.13156 (Simulation time: 0 hr 0 min 11 sec) 
Heartbeat CPU 0 instructions: 5000003 cycles: 1595078 heartbeat IPC: 3.14705 cumulative IPC: 3.13464 (Simulation time: 0 hr 0 min 15 sec) 
Heartbeat CPU 0 instructions: 6000000 cycles: 1913926 heartbeat IPC: 3.13628 cumulative IPC: 3.13492 (Simulation time: 0 hr 0 min 18 sec) 
Heartbeat CPU 0 instructions: 7000003 cycles: 2230181 heartbeat IPC: 3.16201 cumulative IPC: 3.13876 (Simulation time: 0 hr 0 min 20 sec) 
Heartbeat CPU 0 instructions: 8000001 cycles: 2548568 heartbeat IPC: 3.14083 cumulative IPC: 3.13902 (Simulation time: 0 hr 0 min 23 sec) 
Heartbeat CPU 0 instructions: 9000002 cycles: 2868793 heartbeat IPC: 3.12281 cumulative IPC: 3.13721 (Simulation time: 0 hr 0 min 26 sec) 
Heartbeat CPU 0 instructions: 10000002 cycles: 3187953 heartbeat IPC: 3.13322 cumulative IPC: 3.13681 (Simulation time: 0 hr 0 min 28 sec) 

Warmup complete CPU 0 instructions: 10000002 cycles: 3187953 (Simulation time: 0 hr 0 min 28 sec) 

Heartbeat CPU 0 instructions: 11000000 cycles: 10923127 heartbeat IPC: 0.129279 cumulative IPC: 0.129279 (Simulation time: 0 hr 0 min 36 sec) 
Heartbeat CPU 0 instructions: 12000001 cycles: 18306239 heartbeat IPC: 0.135444 cumulative IPC: 0.13229 (Simulation time: 0 hr 0 min 44 sec) 
Heartbeat CPU 0 instructions: 13000001 cycles: 26264125 heartbeat IPC: 0.125662 cumulative IPC: 0.130004 (Simulation time: 0 hr 0 min 53 sec) 
Heartbeat CPU 0 instructions: 14000003 cycles: 34377732 heartbeat IPC: 0.12325 cumulative IPC: 0.128247 (Simulation time: 0 hr 1 min 2 sec) 
Heartbeat CPU 0 instructions: 15000001 cycles: 42045354 heartbeat IPC: 0.130418 cumulative IPC: 0.128676 (Simulation time: 0 hr 1 min 10 sec) 
Heartbeat CPU 0 instructions: 16000000 cycles: 50172781 heartbeat IPC: 0.12304 cumulative IPC: 0.127701 (Simulation time: 0 hr 1 min 19 sec) 
Heartbeat CPU 0 instructions: 17000000 cycles: 58471587 heartbeat IPC: 0.120499 cumulative IPC: 0.12662 (Simulation time: 0 hr 1 min 27 sec) 
Heartbeat CPU 0 instructions: 18000001 cycles: 67437855 heartbeat IPC: 0.111529 cumulative IPC: 0.124514 (Simulation time: 0 hr 1 min 35 sec) 
Heartbeat CPU 0 instructions: 19000003 cycles: 74115726 heartbeat IPC: 0.149749 cumulative IPC: 0.12689 (Simulation time: 0 hr 1 min 43 sec) 
Heartbeat CPU 0 instructions: 20000000 cycles: 80614734 heartbeat IPC: 0.153869 cumulative IPC: 0.129154 (Simulation time: 0 hr 1 min 52 sec) 
Finished CPU 0 instructions: 10000002 cycles: 77426782 cumulative IPC: 0.129154 (Simulation time: 0 hr 1 min 52 sec) 

ChampSim completed all CPUs

Region of Interest Statistics

CPU 0 cumulative IPC: 0.129154 instructions: 10000002 cycles: 77426782

Total ROB STALLS:                    2546556
STLB MISS ROB STALLS:                      3
L1D  LOAD MISS ROB STALLS:            434546  Translation MISS ROB STALLS:             3
L2C  LOAD MISS ROB STALLS:            407030  Translation MISS ROB STALLS:             3
LLC  LOAD MISS ROB STALLS:            339428  Translation MISS ROB STALLS:             3

ITLB TOTAL     ACCESS:           1419133  HIT:    1419133  MISS:          0  HIT %:        100  MISS %:          0   MPKI: 0
ITLB LOAD TRANSLATION ACCESS:    1419133  HIT:    1419133  MISS:          0  HIT %:        100  MISS %:          0   MPKI: 0
ITLB AVERAGE MISS LATENCY:           nan cycles
ITLB RQ ACCESS:     1608715	FORWARD:           0	MERGED:       189582	TO_CACHE:    1419133

DTLB TOTAL     ACCESS:           2551406  HIT:    2532657  MISS:      18749  HIT %:    99.2652  MISS %:    0.73485   MPKI: 1.8749
DTLB LOAD TRANSLATION ACCESS:    2551406  HIT:    2532657  MISS:      18749  HIT %:    99.2652  MISS %:    0.73485   MPKI: 1.8749
DTLB AVERAGE MISS LATENCY:       9.09318 cycles
DTLB RQ ACCESS:     2690554	FORWARD:           0	MERGED:       139135	TO_CACHE:    2551419

STLB TOTAL     ACCESS:             18749  HIT:      18744  MISS:          5  HIT %:    99.9733  MISS %:  0.0266681   MPKI: 0.0005
STLB LOAD TRANSLATION ACCESS:      18749  HIT:      18744  MISS:          5  HIT %:    99.9733  MISS %:  0.0266681   MPKI: 0.0005
STLB AVERAGE MISS LATENCY:         348.2 cycles
STLB RQ ACCESS:       18749	FORWARD:           0	MERGED:            0	TO_CACHE:      18749

PSCL4 TOTAL     ACCESS:                 5  HIT:          5  MISS:          0  HIT %:        100  MISS %:          0   MPKI: 0
PSCL4 LOAD TRANSLATION ACCESS:          5  HIT:          5  MISS:          0  HIT %:        100  MISS %:          0   MPKI: 0

PSCL3 TOTAL     ACCESS:                 5  HIT:          5  MISS:          0  HIT %:        100  MISS %:          0   MPKI: 0
PSCL3 LOAD TRANSLATION ACCESS:          5  HIT:          5  MISS:          0  HIT %:        100  MISS %:          0   MPKI: 0

PSCL2 TOTAL     ACCESS:                 5  HIT:          5  MISS:          0  HIT %:        100  MISS %:          0   MPKI: 0
PSCL2 LOAD TRANSLATION ACCESS:          5  HIT:          5  MISS:          0  HIT %:        100  MISS %:          0   MPKI: 0

L1D TOTAL     ACCESS:           2514487  HIT:    1716404  MISS:     798083  HIT %:    68.2606  MISS %:    31.7394   MPKI: 79.8083  USED:     190125  UNUSED:     607958
L1D LOAD      ACCESS:           2316064  HIT:    1579362  MISS:     736702  HIT %:    68.1916  MISS %:    31.8084   MPKI: 73.6702  USED:     190125  UNUSED:     546578
L1D RFO       ACCESS:            198418  HIT:     137042  MISS:      61376  HIT %:    69.0673  MISS %:    30.9327   MPKI: 6.1376
L1D LOAD TRANSLATION ACCESS:          5  HIT:          0  MISS:          5  HIT %:          0  MISS %:        100   MPKI: 0.0005  USED:          0  UNUSED:          5
L1D PTL1 TRANSLATION ACCESS:          5  HIT:          0  MISS:          5  HIT %:          0  MISS %:        100   MPKI: 0.0005
L1D PTL2 TRANSLATION ACCESS:          0  HIT:          0  MISS:          0  HIT %:        nan  MISS %:        nan   MPKI: 0
L1D PTL3 TRANSLATION ACCESS:          0  HIT:          0  MISS:          0  HIT %:        nan  MISS %:        nan   MPKI: 0
L1D PTL4 TRANSLATION ACCESS:          0  HIT:          0  MISS:          0  HIT %:        nan  MISS %:        nan   MPKI: 0
L1D PTL5 TRANSLATION ACCESS:          0  HIT:          0  MISS:          0  HIT %:        nan  MISS %:        nan   MPKI: 0
L1D TOTAL EVICTIONS:             798083  TRANSLATION EVICTIONS:          5  TRANSLATION EVICTING TRANSALTION:          0  TRANSLATION EVICTING LOAD:          4  LOAD EVICTING TRANSALTION:          5  LOAD EVICTING LOAD:      690515
L1D AVERAGE MISS LATENCY:         233.1 cycles  AVERAGE LOAD MISS LATENCY:       236.103 cycles  AVERAGE LOAD TRANSLATION MISS LATENCY:         242.2 cycles
L1D RQ ACCESS:     3830065	FORWARD:           0	MERGED:      1337928	TO_CACHE:    2492137
L1D WQ ACCESS:      198422	FORWARD:           0	MERGED:            0	TO_CACHE:     198422

L1I TOTAL     ACCESS:           1608715  HIT:    1608715  MISS:          0  HIT %:        100  MISS %:          0   MPKI: 0
L1I LOAD      ACCESS:           1608715  HIT:    1608715  MISS:          0  HIT %:        100  MISS %:          0   MPKI: 0
L1I AVERAGE MISS LATENCY:           nan cycles
L1I RQ ACCESS:     2556445	FORWARD:           0	MERGED:       947730	TO_CACHE:    1608715

L2C TOTAL     ACCESS:            995240  HIT:     252630  MISS:     742610  HIT %:    25.3838  MISS %:    74.6162   MPKI: 74.261  USED:      41629  UNUSED:     700981
L2C LOAD      ACCESS:            736702  HIT:      52254  MISS:     684448  HIT %:    7.09296  MISS %:     92.907   MPKI: 68.4448  USED:      38576  UNUSED:     645911
L2C RFO       ACCESS:             61374  HIT:       3455  MISS:      57919  HIT %:    5.62942  MISS %:    94.3706   MPKI: 5.7919
L2C WRITEBACK ACCESS:            197159  HIT:     196921  MISS:        238  HIT %:    99.8793  MISS %:   0.120715   MPKI: 0.0238
L2C LOAD TRANSLATION ACCESS:          5  HIT:          0  MISS:          5  HIT %:          0  MISS %:        100   MPKI: 0.0005  USED:          0  UNUSED:          5
L2C PTL1 TRANSLATION ACCESS:          5  HIT:          0  MISS:          5  HIT %:          0  MISS %:        100   MPKI: 0.0005
L2C PTL2 TRANSLATION ACCESS:          0  HIT:          0  MISS:          0  HIT %:        nan  MISS %:        nan   MPKI: 0
L2C PTL3 TRANSLATION ACCESS:          0  HIT:          0  MISS:          0  HIT %:        nan  MISS %:        nan   MPKI: 0
L2C PTL4 TRANSLATION ACCESS:          0  HIT:          0  MISS:          0  HIT %:        nan  MISS %:        nan   MPKI: 0
L2C PTL5 TRANSLATION ACCESS:          0  HIT:          0  MISS:          0  HIT %:        nan  MISS %:        nan   MPKI: 0
L2C TOTAL EVICTIONS:             742610  TRANSLATION EVICTIONS:          5  TRANSLATION EVICTING TRANSALTION:          0  TRANSLATION EVICTING LOAD:          5  LOAD EVICTING TRANSALTION:          5  LOAD EVICTING LOAD:      636304
L2C AVERAGE MISS LATENCY:       234.213 cycles  AVERAGE LOAD MISS LATENCY:       237.789 cycles  AVERAGE LOAD TRANSLATION MISS LATENCY:         227.2 cycles
L2C RQ ACCESS:      798084	FORWARD:           0	MERGED:            0	TO_CACHE:     798082
L2C WQ ACCESS:      197159	FORWARD:           2	MERGED:            0	TO_CACHE:     197159

LLC TOTAL     ACCESS:            934257  HIT:     278795  MISS:     655462  HIT %:    29.8414  MISS %:    70.1586   MPKI: 65.5462  USED:      58969  UNUSED:     596493
LLC LOAD      ACCESS:            684447  HIT:      82513  MISS:     601934  HIT %:    12.0554  MISS %:    87.9446   MPKI: 60.1934  USED:      54640  UNUSED:     547024
LLC RFO       ACCESS:             57919  HIT:       4752  MISS:      53167  HIT %:    8.20456  MISS %:    91.7954   MPKI: 5.3167
LLC WRITEBACK ACCESS:            191886  HIT:     191530  MISS:        356  HIT %:    99.8145  MISS %:   0.185527   MPKI: 0.0356
LLC LOAD TRANSLATION ACCESS:          5  HIT:          0  MISS:          5  HIT %:          0  MISS %:        100   MPKI: 0.0005  USED:          0  UNUSED:          5
LLC PTL1 TRANSLATION ACCESS:          5  HIT:          0  MISS:          5  HIT %:          0  MISS %:        100   MPKI: 0.0005
LLC PTL2 TRANSLATION ACCESS:          0  HIT:          0  MISS:          0  HIT %:        nan  MISS %:        nan   MPKI: 0
LLC PTL3 TRANSLATION ACCESS:          0  HIT:          0  MISS:          0  HIT %:        nan  MISS %:        nan   MPKI: 0
LLC PTL4 TRANSLATION ACCESS:          0  HIT:          0  MISS:          0  HIT %:        nan  MISS %:        nan   MPKI: 0
LLC PTL5 TRANSLATION ACCESS:          0  HIT:          0  MISS:          0  HIT %:        nan  MISS %:        nan   MPKI: 0
LLC TOTAL EVICTIONS:             655462  TRANSLATION EVICTIONS:          5  TRANSLATION EVICTING TRANSALTION:          0  TRANSLATION EVICTING LOAD:          4  LOAD EVICTING TRANSALTION:          5  LOAD EVICTING LOAD:      553656
LLC AVERAGE MISS LATENCY:       231.375 cycles  AVERAGE LOAD MISS LATENCY:       236.272 cycles  AVERAGE LOAD TRANSLATION MISS LATENCY:         197.2 cycles
LLC RQ ACCESS:      742373	FORWARD:           0	MERGED:            0	TO_CACHE:     742372
LLC WQ ACCESS:      191887	FORWARD:           1	MERGED:            0	TO_CACHE:     191887


RAW hits: 0
Loads Generated: 3830058
Loads sent to L1D: 3830060
Stores Generated: 198422
Stores sent to L1D: 198422
Major fault: 0 Minor fault: 97
Allocated PAGES: 97

DRAM Statistics
 CHANNEL 0
 RQ ROW_BUFFER_HIT:       5418  ROW_BUFFER_MISS:     649471
 DBUS_CONGESTED:          6
 WQ ROW_BUFFER_HIT:     129361  ROW_BUFFER_MISS:      53212  FULL:          0

 AVG_CONGESTED_CYCLE: 4

CPU 0 Branch Prediction Accuracy: 87.5533% MPKI: 21.3623 Average ROB Occupancy at Mispredict: 28.2245
Branch types
NOT_BRANCH: 8283376 82.8337%
BRANCH_DIRECT_JUMP: 76825 0.76825%
BRANCH_INDIRECT: 0 0%
BRANCH_CONDITIONAL: 1639480 16.3948%
BRANCH_DIRECT_CALL: 0 0%
BRANCH_INDIRECT_CALL: 0 0%
BRANCH_RETURN: 0 0%
BRANCH_OTHER: 0 0%

DRAM PAGES: 1048576
Allocated PAGES: 97
